dssFiles/Mikilua_VLN_elem.Txt

NODE-GROUND VOLTAGES BY CIRCUIT ELEMENT

Power Delivery Elements

Bus             (node ref)  Phase    Magnitude, kV (pu)    Angle

ELEMENT = "Vsource.SOURCE"
SOURCEBUS        (  1)    1           7.5528 (   1.049) /_   -0.2
SOURCEBUS        (  2)    2           7.5706 (   1.052) /_ -120.0
SOURCEBUS        (  3)    3           7.5517 (   1.049) /_  120.0
------------
SOURCEBUS        (  0)    1                0 (       0) /_    0.0
SOURCEBUS        (  0)    2                0 (       0) /_    0.0
SOURCEBUS        (  0)    3                0 (       0) /_    0.0

ELEMENT = "Line.BB_258064"
DEV_258083       (  4)    1           7.4722 (   1.038) /_   -1.0
------------
DEV_258183       (  5)    1           7.4722 (   1.038) /_   -1.0

ELEMENT = "Line.BB_258067"
DEV_258175       (  6)    1           7.4708 (   1.038) /_   -1.0
------------
DEV_258084       (  7)    1           7.4708 (   1.038) /_   -1.0

ELEMENT = "Line.BB_258070"
DEV_258082       (  8)    1           7.4714 (   1.038) /_   -1.0
------------
DEV_258185       (  9)    1           7.4714 (   1.038) /_   -1.0

ELEMENT = "Line.BB_258073"
DEV_258074       ( 10)    1           7.4656 (   1.037) /_   -1.0
------------
DEV_258195       ( 11)    1           7.4656 (   1.037) /_   -1.0

ELEMENT = "Line.BB_258077"
DEV_258078       ( 12)    1           7.4655 (   1.037) /_   -1.0
------------
DEV_258191       ( 13)    1           7.4655 (   1.037) /_   -1.0

ELEMENT = "Line.BB_258080"
DEV_258081       ( 14)    1           7.4657 (   1.037) /_   -1.0
------------
DEV_258181       ( 15)    1           7.4657 (   1.037) /_   -1.0

ELEMENT = "Line.BB_258153"
DEV_258173       ( 16)    1           7.4717 (   1.038) /_   -1.0
------------
DEV_258152       ( 17)    1           7.4717 (   1.038) /_   -1.0

ELEMENT = "Line.BB_258202"
DEV_258210       ( 18)    1           7.4671 (   1.037) /_   -1.0
------------
DEV_258211       ( 19)    1           7.4671 (   1.037) /_   -1.0

ELEMENT = "Line.BB_258797"
DEV_258793       ( 20)    1           7.4729 (   1.038) /_   -1.0
------------
DEV_258894       ( 21)    1           7.4729 (   1.038) /_   -1.0

ELEMENT = "Line.BB_258803"
DEV_258813       ( 22)    1           7.4765 (   1.038) /_   -1.0
------------
DEV_258887       ( 23)    1           7.4765 (   1.038) /_   -1.0

ELEMENT = "Line.BB_258805"
DEV_258881       ( 24)    1           7.4727 (   1.038) /_   -1.0
------------
DEV_258818       ( 25)    1           7.4727 (   1.038) /_   -1.0

ELEMENT = "Line.BB_258824"
DEV_258825       ( 26)    1           7.4748 (   1.038) /_   -1.0
------------
DEV_258823       ( 27)    1           7.4748 (   1.038) /_   -1.0

ELEMENT = "Line.BB_258838"
DEV_258839       ( 28)    1           7.4725 (   1.038) /_   -1.0
------------
DEV_258897       ( 29)    1           7.4725 (   1.038) /_   -1.0

ELEMENT = "Line.BB_258899"
DEV_258807       ( 30)    1           7.4756 (   1.038) /_   -1.0
------------
DEV_258885       ( 31)    1           7.4756 (   1.038) /_   -1.0

ELEMENT = "Line.BB_259014"
DEV_259020       ( 32)    1           7.4907 (    1.04) /_   -0.9
DEV_259020       ( 33)    2            7.601 (   1.056) /_ -120.0
DEV_259020       ( 34)    3           7.5296 (   1.046) /_  120.2
------------
DEV_259186       ( 35)    1           7.4907 (    1.04) /_   -0.9
DEV_259186       ( 36)    2            7.601 (   1.056) /_ -120.0
DEV_259186       ( 37)    3           7.5296 (   1.046) /_  120.2

ELEMENT = "Line.BB_259030"
NODE_613672      ( 38)    1           7.4753 (   1.038) /_   -1.0
NODE_613672      ( 39)    2           7.6067 (   1.057) /_ -120.1
NODE_613672      ( 40)    3           7.5289 (   1.046) /_  120.3
------------
DEV_258057       ( 41)    1           7.4753 (   1.038) /_   -1.0
DEV_258057       ( 42)    2           7.6067 (   1.057) /_ -120.1
DEV_258057       ( 43)    3           7.5289 (   1.046) /_  120.3

ELEMENT = "Line.BB_259031"
DEV_259046       ( 44)    1           7.4681 (   1.037) /_   -1.0
------------
DEV_259145       ( 45)    1           7.4681 (   1.037) /_   -1.0

ELEMENT = "Line.BB_259033"
DEV_259149       ( 46)    1           7.4674 (   1.037) /_   -1.0
------------
DEV_259034       ( 47)    1           7.4674 (   1.037) /_   -1.0

ELEMENT = "Line.BB_259037"
DEV_259151       ( 48)    1           7.4668 (   1.037) /_   -1.0
------------
DEV_259038       ( 49)    1           7.4668 (   1.037) /_   -1.0

ELEMENT = "Line.BB_259041"
DEV_259042       ( 50)    1           7.4659 (   1.037) /_   -1.0
------------
DEV_259153       ( 51)    1           7.4659 (   1.037) /_   -1.0

ELEMENT = "Line.BB_259044"
DEV_259143       ( 52)    1            7.466 (   1.037) /_   -1.0
------------
DEV_259045       ( 53)    1            7.466 (   1.037) /_   -1.0

ELEMENT = "Line.BB_259160"
DEV_259162       ( 54)    1           7.4739 (   1.038) /_   -1.0
------------
DEV_259161       ( 55)    1           7.4739 (   1.038) /_   -1.0

ELEMENT = "Line.BB_259166"
DEV_259167       ( 56)    1           7.4748 (   1.038) /_   -1.0
------------
DEV_259168       ( 57)    1           7.4748 (   1.038) /_   -1.0

ELEMENT = "Line.BB_259171"
DEV_259173       ( 58)    1           7.4753 (   1.038) /_   -1.0
------------
DEV_259172       ( 59)    1           7.4753 (   1.038) /_   -1.0

ELEMENT = "Line.BB_259176"
DEV_259177       ( 60)    1           7.4756 (   1.038) /_   -1.0
------------
DEV_259178       ( 61)    1           7.4756 (   1.038) /_   -1.0

ELEMENT = "Line.BB_259185"
DEV_259050       ( 62)    1           7.4757 (   1.038) /_   -1.0
DEV_259050       ( 63)    2           7.6071 (   1.057) /_ -120.0
DEV_259050       ( 64)    3           7.5281 (   1.046) /_  120.3
------------
NODE_30049816    ( 65)    1           7.4757 (   1.038) /_   -1.0
NODE_30049816    ( 66)    2           7.6071 (   1.057) /_ -120.0
NODE_30049816    ( 67)    3           7.5281 (   1.046) /_  120.3

ELEMENT = "Line.BB_262469"
DEV_262522       ( 68)    1            7.556 (    1.05) /_  120.0
------------
DEV_262470       ( 69)    1            7.556 (    1.05) /_  120.0

ELEMENT = "Line.BB_263527"
DEV_263529       ( 70)    1           7.5578 (    1.05) /_   -0.2
DEV_263529       ( 71)    2           7.5749 (   1.052) /_ -120.0
DEV_263529       ( 72)    3            7.556 (    1.05) /_  120.0
------------
DEV_263528       ( 73)    1           7.5578 (    1.05) /_   -0.2
DEV_263528       ( 74)    2           7.5749 (   1.052) /_ -120.0
DEV_263528       ( 75)    3            7.556 (    1.05) /_  120.0

ELEMENT = "Line.BB_263551"
DEV_263917       ( 76)    1            7.556 (    1.05) /_  120.0
------------
DEV_263554       ( 77)    1            7.556 (    1.05) /_  120.0

ELEMENT = "Line.BB_263552"
DEV_263909       ( 78)    1            7.556 (    1.05) /_  120.0
------------
DEV_263557       ( 79)    1            7.556 (    1.05) /_  120.0

ELEMENT = "Line.BB_263625"
DEV_263626       ( 80)    1           7.5579 (    1.05) /_   -0.2
------------
DEV_263913       ( 81)    1           7.5579 (    1.05) /_   -0.2

ELEMENT = "Line.BB_263629"
DEV_263630       ( 82)    1           7.5579 (    1.05) /_   -0.2
------------
DEV_263905       ( 83)    1           7.5579 (    1.05) /_   -0.2

ELEMENT = "Line.BB_263786"
DEV_263668       ( 84)    1            7.556 (    1.05) /_  120.0
------------
DEV_263881       ( 85)    1            7.556 (    1.05) /_  120.0

ELEMENT = "Line.BB_263787"
DEV_263672       ( 86)    1            7.556 (    1.05) /_  120.0
------------
DEV_263883       ( 87)    1            7.556 (    1.05) /_  120.0

ELEMENT = "Line.BB_263788"
DEV_263678       ( 88)    1            7.556 (    1.05) /_  120.0
------------
DEV_263885       ( 89)    1            7.556 (    1.05) /_  120.0

ELEMENT = "Line.BB_263789"
DEV_263685       ( 90)    1            7.556 (    1.05) /_  120.0
------------
DEV_263879       ( 91)    1            7.556 (    1.05) /_  120.0

ELEMENT = "Line.BB_263790"
DEV_263553       ( 92)    1            7.556 (    1.05) /_  120.0
------------
DEV_263915       ( 93)    1            7.556 (    1.05) /_  120.0

ELEMENT = "Line.BB_263791"
DEV_263555       ( 94)    1            7.556 (    1.05) /_  120.0
------------
DEV_263919       ( 95)    1            7.556 (    1.05) /_  120.0

ELEMENT = "Line.BB_263792"
DEV_263920       ( 96)    1            7.556 (    1.05) /_  120.0
------------
DEV_263556       ( 97)    1            7.556 (    1.05) /_  120.0

ELEMENT = "Line.BB_263793"
DEV_263634       ( 98)    1           7.5579 (    1.05) /_   -0.2
------------
DEV_263717       ( 99)    1           7.5579 (    1.05) /_   -0.2

ELEMENT = "Line.BB_263794"
DEV_263638       (100)    1           7.5579 (    1.05) /_   -0.2
------------
DEV_263903       (101)    1           7.5579 (    1.05) /_   -0.2

ELEMENT = "Line.BB_263795"
DEV_263640       (102)    1           7.5579 (    1.05) /_   -0.2
------------
DEV_263907       (103)    1           7.5579 (    1.05) /_   -0.2

ELEMENT = "Line.BB_263796"
DEV_263655       (104)    1           7.5749 (   1.052) /_ -120.0
------------
DEV_263720       (105)    1           7.5749 (   1.052) /_ -120.0

ELEMENT = "Line.BB_263797"
DEV_263892       (106)    1           7.5749 (   1.052) /_ -120.0
------------
DEV_263652       (107)    1           7.5749 (   1.052) /_ -120.0

ELEMENT = "Line.BB_263798"
DEV_263657       (108)    1           7.5749 (   1.052) /_ -120.0
------------
DEV_263901       (109)    1           7.5749 (   1.052) /_ -120.0

ELEMENT = "Line.BB_263799"
DEV_263897       (110)    1           7.5579 (    1.05) /_   -0.2
------------
DEV_263644       (111)    1           7.5579 (    1.05) /_   -0.2

ELEMENT = "Line.BB_263800"
DEV_263663       (112)    1           7.5749 (   1.052) /_ -120.0
------------
DEV_263899       (113)    1           7.5749 (   1.052) /_ -120.0

ELEMENT = "Line.BB_263801"
DEV_263689       (114)    1            7.556 (    1.05) /_  120.0
------------
DEV_263690       (115)    1            7.556 (    1.05) /_  120.0

ELEMENT = "Line.BB_263802"
DEV_263694       (116)    1            7.556 (    1.05) /_  120.0
------------
DEV_263871       (117)    1            7.556 (    1.05) /_  120.0

ELEMENT = "Line.BB_263803"
DEV_263877       (118)    1            7.556 (    1.05) /_  120.0
------------
DEV_263680       (119)    1            7.556 (    1.05) /_  120.0

ELEMENT = "Line.BB_263804"
DEV_263696       (120)    1            7.556 (    1.05) /_  120.0
------------
DEV_263873       (121)    1            7.556 (    1.05) /_  120.0

ELEMENT = "Line.BB_263805"
DEV_263698       (122)    1            7.556 (    1.05) /_  120.0
------------
DEV_263875       (123)    1            7.556 (    1.05) /_  120.0

ELEMENT = "Line.BB_263806"
DEV_263701       (124)    1            7.556 (    1.05) /_  120.0
------------
DEV_263865       (125)    1            7.556 (    1.05) /_  120.0

ELEMENT = "Line.BB_263807"
DEV_263707       (126)    1            7.556 (    1.05) /_  120.0
------------
DEV_263867       (127)    1            7.556 (    1.05) /_  120.0

ELEMENT = "Line.BB_263808"
DEV_263716       (128)    1            7.556 (    1.05) /_  120.0
------------
DEV_263863       (129)    1            7.556 (    1.05) /_  120.0

ELEMENT = "Line.BB_263809"
DEV_263710       (130)    1            7.556 (    1.05) /_  120.0
------------
DEV_263869       (131)    1            7.556 (    1.05) /_  120.0

ELEMENT = "Line.BB_263817"
DEV_263911       (132)    1           7.5579 (    1.05) /_   -0.2
------------
DEV_263621       (133)    1           7.5579 (    1.05) /_   -0.2

ELEMENT = "Line.BB_263823"
DEV_263895       (134)    1           7.5749 (   1.052) /_ -120.0
------------
DEV_263622       (135)    1           7.5749 (   1.052) /_ -120.0

ELEMENT = "Line.BB_263824"
NODE_5011599     (136)    1           7.5579 (    1.05) /_   -0.2
NODE_5011599     (137)    2           7.5749 (   1.052) /_ -120.0
NODE_5011599     (138)    3            7.556 (    1.05) /_  120.0
------------
DEV_263842       (139)    1           7.5579 (    1.05) /_   -0.2
DEV_263842       (140)    2           7.5749 (   1.052) /_ -120.0
DEV_263842       (141)    3            7.556 (    1.05) /_  120.0

ELEMENT = "Line.BB_263829"
NODE_5011570     (142)    1           7.5579 (    1.05) /_   -0.2
NODE_5011570     (143)    2           7.5749 (   1.052) /_ -120.0
NODE_5011570     (144)    3            7.556 (    1.05) /_  120.0
------------
DEV_263840       (145)    1           7.5579 (    1.05) /_   -0.2
DEV_263840       (146)    2           7.5749 (   1.052) /_ -120.0
DEV_263840       (147)    3            7.556 (    1.05) /_  120.0

ELEMENT = "Line.BB_263833"
DEV_263922       (148)    1           7.5579 (    1.05) /_   -0.2
DEV_263922       (149)    2           7.5749 (   1.052) /_ -120.0
DEV_263922       (150)    3            7.556 (    1.05) /_  120.0
------------
DEV_263923       (151)    1           7.5579 (    1.05) /_   -0.2
DEV_263923       (152)    2           7.5749 (   1.052) /_ -120.0
DEV_263923       (153)    3            7.556 (    1.05) /_  120.0

ELEMENT = "Line.BB_263888"
DEV_263889       (154)    1           7.5749 (   1.052) /_ -120.0
------------
DEV_263887       (155)    1           7.5749 (   1.052) /_ -120.0

ELEMENT = "Line.BB_264037"
DEV_264039       (156)    1           7.5745 (   1.052) /_ -120.0
------------
DEV_264038       (157)    1           7.5745 (   1.052) /_ -120.0

ELEMENT = "Line.BB_264116"
DEV_264112       (158)    1           7.5557 (   1.049) /_  120.0
------------
DEV_264113       (159)    1           7.5557 (   1.049) /_  120.0

ELEMENT = "Line.BB_264119"
DEV_264110       (160)    1           7.5574 (    1.05) /_   -0.2
------------
DEV_264111       (161)    1           7.5574 (    1.05) /_   -0.2

ELEMENT = "Line.BB_264132"
DEV_264133       (162)    1           7.5574 (    1.05) /_   -0.2
------------
DEV_264131       (163)    1           7.5574 (    1.05) /_   -0.2

ELEMENT = "Line.BB_264986"
DEV_264985       (164)    1           7.5574 (    1.05) /_   -0.2
------------
DEV_264984       (165)    1           7.5574 (    1.05) /_   -0.2

ELEMENT = "Line.BB_264987"
DEV_264981       (166)    1           7.5574 (    1.05) /_   -0.2
------------
DEV_264980       (167)    1           7.5574 (    1.05) /_   -0.2

ELEMENT = "Line.BB_265164"
DEV_265173       (168)    1           7.5572 (    1.05) /_   -0.2
DEV_265173       (169)    2           7.5743 (   1.052) /_ -120.0
DEV_265173       (170)    3           7.5554 (   1.049) /_  120.0
------------
DEV_265174       (171)    1           7.5572 (    1.05) /_   -0.2
DEV_265174       (172)    2           7.5743 (   1.052) /_ -120.0
DEV_265174       (173)    3           7.5554 (   1.049) /_  120.0

ELEMENT = "Line.BB_51045896"
DEV_51045897     (174)    1            7.474 (   1.038) /_   -1.0
------------
DEV_51045898     (175)    1            7.474 (   1.038) /_   -1.0

ELEMENT = "Line.BB_51045964"
DEV_51045965     (176)    1           7.5283 (   1.046) /_  120.3
------------
DEV_51045966     (177)    1           7.5283 (   1.046) /_  120.3

ELEMENT = "Line.BB_51045975"
DEV_51045976     (178)    1           7.5283 (   1.046) /_  120.3
------------
DEV_51045977     (179)    1           7.5283 (   1.046) /_  120.3

ELEMENT = "Line.BB_51045982"
DEV_51045983     (180)    1           7.5282 (   1.046) /_  120.3
------------
DEV_51045984     (181)    1           7.5282 (   1.046) /_  120.3

ELEMENT = "Line.BB_51045990"
DEV_51045991     (182)    1           7.6071 (   1.057) /_ -120.0
------------
DEV_51045992     (183)    1           7.6071 (   1.057) /_ -120.0

ELEMENT = "Line.BB_51045998"
DEV_51045999     (184)    1           7.6071 (   1.057) /_ -120.0
------------
DEV_51046000     (185)    1           7.6071 (   1.057) /_ -120.0

ELEMENT = "Line.BB_51046005"
DEV_51046006     (186)    1           7.6071 (   1.057) /_ -120.0
------------
DEV_51046007     (187)    1           7.6071 (   1.057) /_ -120.0

ELEMENT = "Line.BB_51046012"
DEV_51046013     (188)    1           7.6071 (   1.057) /_ -120.0
------------
DEV_51046014     (189)    1           7.6071 (   1.057) /_ -120.0

ELEMENT = "Line.BB_51046018"
DEV_51046019     (190)    1           7.6071 (   1.057) /_ -120.0
------------
DEV_51046020     (191)    1           7.6071 (   1.057) /_ -120.0

ELEMENT = "Line.BB_51046030"
DEV_51046031     (192)    1           7.6071 (   1.057) /_ -120.0
------------
DEV_51046032     (193)    1           7.6071 (   1.057) /_ -120.0

ELEMENT = "Line.BB_51046037"
DEV_51046038     (194)    1           7.6071 (   1.057) /_ -120.0
------------
DEV_51046039     (195)    1           7.6071 (   1.057) /_ -120.0

ELEMENT = "Line.BB_51046044"
DEV_51046045     (196)    1           7.5285 (   1.046) /_  120.3
------------
DEV_51046046     (197)    1           7.5285 (   1.046) /_  120.3

ELEMENT = "Line.BB_51054581"
DEV_51054582     (198)    1           7.4694 (   1.037) /_   -1.0
------------
DEV_51054583     (199)    1           7.4694 (   1.037) /_   -1.0

ELEMENT = "Line.BB_51067432"
DEV_51067433     (200)    1           7.5566 (    1.05) /_   -0.2
------------
DEV_51067434     (201)    1           7.5566 (    1.05) /_   -0.2

ELEMENT = "Line.BB_51118371"
DEV_51118372     (202)    1           7.5543 (   1.049) /_   -0.2
DEV_51118372     (203)    2           7.5719 (   1.052) /_ -120.0
DEV_51118372     (204)    3           7.5529 (   1.049) /_  120.0
------------
DEV_51118373     (205)    1           7.5543 (   1.049) /_   -0.2
DEV_51118373     (206)    2           7.5719 (   1.052) /_ -120.0
DEV_51118373     (207)    3           7.5529 (   1.049) /_  120.0

ELEMENT = "Line.BB_51118539"
DEV_51118540     (208)    1           7.5574 (    1.05) /_   -0.2
DEV_51118540     (209)    2           7.5745 (   1.052) /_ -120.0
DEV_51118540     (210)    3           7.5556 (   1.049) /_  120.0
------------
DEV_51118541     (211)    1           7.5574 (    1.05) /_   -0.2
DEV_51118541     (212)    2           7.5745 (   1.052) /_ -120.0
DEV_51118541     (213)    3           7.5556 (   1.049) /_  120.0

ELEMENT = "Line.BB_51159904"
DEV_51159905     (214)    1           7.5546 (   1.049) /_   -0.2
DEV_51159905     (215)    2           7.5721 (   1.052) /_ -120.0
DEV_51159905     (216)    3           7.5532 (   1.049) /_  120.0
------------
DEV_51159906     (217)    1           7.5546 (   1.049) /_   -0.2
DEV_51159906     (218)    2           7.5721 (   1.052) /_ -120.0
DEV_51159906     (219)    3           7.5532 (   1.049) /_  120.0

ELEMENT = "Line.BB_51159923"
DEV_51159924     (220)    1           7.5537 (   1.049) /_   -0.2
DEV_51159924     (221)    2           7.5714 (   1.052) /_ -120.0
DEV_51159924     (222)    3           7.5524 (   1.049) /_  120.0
------------
DEV_51159925     (223)    1           7.5537 (   1.049) /_   -0.2
DEV_51159925     (224)    2           7.5714 (   1.052) /_ -120.0
DEV_51159925     (225)    3           7.5524 (   1.049) /_  120.0

ELEMENT = "Line.BB_51189818"
DEV_51189819     (226)    1           7.5085 (   1.043) /_   -0.7
DEV_51189819     (227)    2           7.5923 (   1.055) /_ -120.0
DEV_51189819     (228)    3           7.5363 (   1.047) /_  120.2
------------
DEV_51189820     (229)    1           7.5085 (   1.043) /_   -0.7
DEV_51189820     (230)    2           7.5923 (   1.055) /_ -120.0
DEV_51189820     (231)    3           7.5363 (   1.047) /_  120.2

ELEMENT = "Line.DEV_258055_613672"
DEV_258055       (232)    1           7.4753 (   1.038) /_   -1.0
------------
NODE_613672      ( 38)    1           7.4753 (   1.038) /_   -1.0

ELEMENT = "Line.DEV_258057_258060"
DEV_258057       ( 41)    1           7.4753 (   1.038) /_   -1.0
DEV_258057       ( 42)    2           7.6067 (   1.057) /_ -120.1
DEV_258057       ( 43)    3           7.5289 (   1.046) /_  120.3
------------
DEV_258060       (233)    1           7.4753 (   1.038) /_   -1.0
DEV_258060       (234)    2           7.6067 (   1.057) /_ -120.1
DEV_258060       (235)    3           7.5289 (   1.046) /_  120.3

ELEMENT = "Line.DEV_259015_259020"
DEV_259015       (236)    1           7.4907 (    1.04) /_   -0.9
DEV_259015       (237)    2            7.601 (   1.056) /_ -120.0
DEV_259015       (238)    3           7.5296 (   1.046) /_  120.2
------------
DEV_259020       ( 32)    1           7.4907 (    1.04) /_   -0.9
DEV_259020       ( 33)    2            7.601 (   1.056) /_ -120.0
DEV_259020       ( 34)    3           7.5296 (   1.046) /_  120.2

ELEMENT = "Line.DEV_259016_259186"
DEV_259016       (239)    1           7.4907 (    1.04) /_   -0.9
DEV_259016       (240)    2            7.601 (   1.056) /_ -120.0
DEV_259016       (241)    3           7.5296 (   1.046) /_  120.2
------------
DEV_259186       ( 35)    1           7.4907 (    1.04) /_   -0.9
DEV_259186       ( 36)    2            7.601 (   1.056) /_ -120.0
DEV_259186       ( 37)    3           7.5296 (   1.046) /_  120.2

ELEMENT = "Line.DEV_259023_613672"
DEV_259023       (242)    1           7.6067 (   1.057) /_ -120.1
------------
NODE_613672      ( 39)    1           7.6067 (   1.057) /_ -120.1

ELEMENT = "Line.DEV_259025_613672"
DEV_259025       (243)    1           7.5289 (   1.046) /_  120.3
------------
NODE_613672      ( 40)    1           7.5289 (   1.046) /_  120.3

ELEMENT = "Line.DEV_259026_613672"
DEV_259026       (244)    1           7.4753 (   1.038) /_   -1.0
------------
NODE_613672      ( 38)    1           7.4753 (   1.038) /_   -1.0

ELEMENT = "Line.DEV_259027_613672"
DEV_259027       (245)    1           7.6067 (   1.057) /_ -120.1
------------
NODE_613672      ( 39)    1           7.6067 (   1.057) /_ -120.1

ELEMENT = "Line.DEV_259028_613672"
DEV_259028       (246)    1           7.5289 (   1.046) /_  120.3
------------
NODE_613672      ( 40)    1           7.5289 (   1.046) /_  120.3

ELEMENT = "Line.DEV_259048_30049816"
DEV_259048       (247)    1           7.4757 (   1.038) /_   -1.0
------------
NODE_30049816    ( 65)    1           7.4757 (   1.038) /_   -1.0

ELEMENT = "Line.DEV_259049_30049816"
DEV_259049       (248)    1           7.6071 (   1.057) /_ -120.0
------------
NODE_30049816    ( 66)    1           7.6071 (   1.057) /_ -120.0

ELEMENT = "Line.DEV_259050_259159"
DEV_259050       ( 62)    1           7.4757 (   1.038) /_   -1.0
DEV_259050       ( 63)    2           7.6071 (   1.057) /_ -120.0
DEV_259050       ( 64)    3           7.5281 (   1.046) /_  120.3
------------
DEV_259159       (249)    1           7.4757 (   1.038) /_   -1.0
DEV_259159       (250)    2           7.6071 (   1.057) /_ -120.0
DEV_259159       (251)    3           7.5281 (   1.046) /_  120.3

ELEMENT = "Line.DEV_259051_30049816"
DEV_259051       (252)    1           7.6071 (   1.057) /_ -120.0
------------
NODE_30049816    ( 66)    1           7.6071 (   1.057) /_ -120.0

ELEMENT = "Line.DEV_259052_30049816"
DEV_259052       (253)    1           7.4757 (   1.038) /_   -1.0
------------
NODE_30049816    ( 65)    1           7.4757 (   1.038) /_   -1.0

ELEMENT = "Line.DEV_259157_30049816"
DEV_259157       (254)    1           7.5281 (   1.046) /_  120.3
------------
NODE_30049816    ( 67)    1           7.5281 (   1.046) /_  120.3

ELEMENT = "Line.DEV_259158_30049816"
DEV_259158       (255)    1           7.5281 (   1.046) /_  120.3
------------
NODE_30049816    ( 67)    1           7.5281 (   1.046) /_  120.3

ELEMENT = "Line.DEV_263528_263530"
DEV_263528       ( 73)    1           7.5578 (    1.05) /_   -0.2
DEV_263528       ( 74)    2           7.5749 (   1.052) /_ -120.0
DEV_263528       ( 75)    3            7.556 (    1.05) /_  120.0
------------
DEV_263530       (256)    1           7.5578 (    1.05) /_   -0.2
DEV_263530       (257)    2           7.5749 (   1.052) /_ -120.0
DEV_263530       (258)    3            7.556 (    1.05) /_  120.0

ELEMENT = "Line.DEV_263529_263531"
DEV_263529       ( 70)    1           7.5578 (    1.05) /_   -0.2
DEV_263529       ( 71)    2           7.5749 (   1.052) /_ -120.0
DEV_263529       ( 72)    3            7.556 (    1.05) /_  120.0
------------
DEV_263531       (259)    1           7.5578 (    1.05) /_   -0.2
DEV_263531       (260)    2           7.5749 (   1.052) /_ -120.0
DEV_263531       (261)    3            7.556 (    1.05) /_  120.0

ELEMENT = "Line.DEV_263784_5011570"
DEV_263784       (262)    1            7.556 (    1.05) /_  120.0
------------
NODE_5011570     (144)    1            7.556 (    1.05) /_  120.0

ELEMENT = "Line.DEV_263785_5011570"
DEV_263785       (263)    1            7.556 (    1.05) /_  120.0
------------
NODE_5011570     (144)    1            7.556 (    1.05) /_  120.0

ELEMENT = "Line.DEV_263811_5011570"
DEV_263811       (264)    1           7.5579 (    1.05) /_   -0.2
------------
NODE_5011570     (142)    1           7.5579 (    1.05) /_   -0.2

ELEMENT = "Line.DEV_263812_5011570"
DEV_263812       (265)    1           7.5749 (   1.052) /_ -120.0
------------
NODE_5011570     (143)    1           7.5749 (   1.052) /_ -120.0

ELEMENT = "Line.DEV_263813_5011570"
DEV_263813       (266)    1           7.5749 (   1.052) /_ -120.0
------------
NODE_5011570     (143)    1           7.5749 (   1.052) /_ -120.0

ELEMENT = "Line.DEV_263814_5011570"
DEV_263814       (267)    1           7.5579 (    1.05) /_   -0.2
------------
NODE_5011570     (142)    1           7.5579 (    1.05) /_   -0.2

ELEMENT = "Line.DEV_263815_5011599"
DEV_263815       (268)    1            7.556 (    1.05) /_  120.0
------------
NODE_5011599     (138)    1            7.556 (    1.05) /_  120.0

ELEMENT = "Line.DEV_263816_5011599"
DEV_263816       (269)    1           7.5579 (    1.05) /_   -0.2
------------
NODE_5011599     (136)    1           7.5579 (    1.05) /_   -0.2

ELEMENT = "Line.DEV_263818_5011599"
DEV_263818       (270)    1           7.5749 (   1.052) /_ -120.0
------------
NODE_5011599     (137)    1           7.5749 (   1.052) /_ -120.0

ELEMENT = "Line.DEV_263819_5011599"
DEV_263819       (271)    1            7.556 (    1.05) /_  120.0
------------
NODE_5011599     (138)    1            7.556 (    1.05) /_  120.0

ELEMENT = "Line.DEV_263820_5011599"
DEV_263820       (272)    1           7.5749 (   1.052) /_ -120.0
------------
NODE_5011599     (137)    1           7.5749 (   1.052) /_ -120.0

ELEMENT = "Line.DEV_263821_5011599"
DEV_263821       (273)    1           7.5579 (    1.05) /_   -0.2
------------
NODE_5011599     (136)    1           7.5579 (    1.05) /_   -0.2

ELEMENT = "Line.DEV_263834_263922"
DEV_263834       (274)    1           7.5579 (    1.05) /_   -0.2
DEV_263834       (275)    2           7.5749 (   1.052) /_ -120.0
DEV_263834       (276)    3            7.556 (    1.05) /_  120.0
------------
DEV_263922       (148)    1           7.5579 (    1.05) /_   -0.2
DEV_263922       (149)    2           7.5749 (   1.052) /_ -120.0
DEV_263922       (150)    3            7.556 (    1.05) /_  120.0

ELEMENT = "Line.DEV_263840_263841"
DEV_263840       (145)    1           7.5579 (    1.05) /_   -0.2
DEV_263840       (146)    2           7.5749 (   1.052) /_ -120.0
DEV_263840       (147)    3            7.556 (    1.05) /_  120.0
------------
DEV_263841       (277)    1           7.5579 (    1.05) /_   -0.2
DEV_263841       (278)    2           7.5749 (   1.052) /_ -120.0
DEV_263841       (279)    3            7.556 (    1.05) /_  120.0

ELEMENT = "Line.DEV_263842_263843"
DEV_263842       (139)    1           7.5579 (    1.05) /_   -0.2
DEV_263842       (140)    2           7.5749 (   1.052) /_ -120.0
DEV_263842       (141)    3            7.556 (    1.05) /_  120.0
------------
DEV_263843       (280)    1           7.5579 (    1.05) /_   -0.2
DEV_263843       (281)    2           7.5749 (   1.052) /_ -120.0
DEV_263843       (282)    3            7.556 (    1.05) /_  120.0

ELEMENT = "Line.DEV_263851_263923"
DEV_263851       (283)    1           7.5579 (    1.05) /_   -0.2
DEV_263851       (284)    2           7.5749 (   1.052) /_ -120.0
DEV_263851       (285)    3            7.556 (    1.05) /_  120.0
------------
DEV_263923       (151)    1           7.5579 (    1.05) /_   -0.2
DEV_263923       (152)    2           7.5749 (   1.052) /_ -120.0
DEV_263923       (153)    3            7.556 (    1.05) /_  120.0

ELEMENT = "Line.DEV_264990_264991"
DEV_264990       (286)    1           7.5565 (    1.05) /_   -0.2
DEV_264990       (287)    2           7.5737 (   1.052) /_ -120.0
DEV_264990       (288)    3           7.5548 (   1.049) /_  120.0
------------
DEV_264991       (289)    1           7.5565 (    1.05) /_   -0.2
DEV_264991       (290)    2           7.5737 (   1.052) /_ -120.0
DEV_264991       (291)    3           7.5548 (   1.049) /_  120.0

ELEMENT = "Line.DEV_265173_265175"
DEV_265173       (168)    1           7.5572 (    1.05) /_   -0.2
DEV_265173       (169)    2           7.5743 (   1.052) /_ -120.0
DEV_265173       (170)    3           7.5554 (   1.049) /_  120.0
------------
DEV_265175       (292)    1           7.5572 (    1.05) /_   -0.2
DEV_265175       (293)    2           7.5743 (   1.052) /_ -120.0
DEV_265175       (294)    3           7.5554 (   1.049) /_  120.0

ELEMENT = "Line.DEV_265174_265176"
DEV_265174       (171)    1           7.5572 (    1.05) /_   -0.2
DEV_265174       (172)    2           7.5743 (   1.052) /_ -120.0
DEV_265174       (173)    3           7.5554 (   1.049) /_  120.0
------------
DEV_265176       (295)    1           7.5572 (    1.05) /_   -0.2
DEV_265176       (296)    2           7.5743 (   1.052) /_ -120.0
DEV_265176       (297)    3           7.5554 (   1.049) /_  120.0

ELEMENT = "Line.DEV_265584_628203"
DEV_265584       (298)    1            7.555 (   1.049) /_   -0.2
DEV_265584       (299)    2           7.5725 (   1.052) /_ -120.0
DEV_265584       (300)    3           7.5535 (   1.049) /_  120.0
------------
NODE_628203      (301)    1            7.555 (   1.049) /_   -0.2
NODE_628203      (302)    2           7.5725 (   1.052) /_ -120.0
NODE_628203      (303)    3           7.5535 (   1.049) /_  120.0

ELEMENT = "Line.DEV_51058546_51080616"
DEV_51058546     (304)    1           7.5085 (   1.043) /_   -0.7
DEV_51058546     (305)    2           7.5923 (   1.055) /_ -120.0
DEV_51058546     (306)    3           7.5363 (   1.047) /_  120.2
------------
DEV_51080616     (307)    1           7.5085 (   1.043) /_   -0.7
DEV_51080616     (308)    2           7.5923 (   1.055) /_ -120.0
DEV_51080616     (309)    3           7.5363 (   1.047) /_  120.2

ELEMENT = "Line.DEV_51118372_51118374"
DEV_51118372     (202)    1           7.5543 (   1.049) /_   -0.2
DEV_51118372     (203)    2           7.5719 (   1.052) /_ -120.0
DEV_51118372     (204)    3           7.5529 (   1.049) /_  120.0
------------
DEV_51118374     (310)    1           7.5543 (   1.049) /_   -0.2
DEV_51118374     (311)    2           7.5719 (   1.052) /_ -120.0
DEV_51118374     (312)    3           7.5529 (   1.049) /_  120.0

ELEMENT = "Line.DEV_51118373_51118375"
DEV_51118373     (205)    1           7.5543 (   1.049) /_   -0.2
DEV_51118373     (206)    2           7.5719 (   1.052) /_ -120.0
DEV_51118373     (207)    3           7.5529 (   1.049) /_  120.0
------------
DEV_51118375     (313)    1           7.5543 (   1.049) /_   -0.2
DEV_51118375     (314)    2           7.5719 (   1.052) /_ -120.0
DEV_51118375     (315)    3           7.5529 (   1.049) /_  120.0

ELEMENT = "Line.DEV_51118540_51118542"
DEV_51118540     (208)    1           7.5574 (    1.05) /_   -0.2
DEV_51118540     (209)    2           7.5745 (   1.052) /_ -120.0
DEV_51118540     (210)    3           7.5556 (   1.049) /_  120.0
------------
DEV_51118542     (316)    1           7.5574 (    1.05) /_   -0.2
DEV_51118542     (317)    2           7.5745 (   1.052) /_ -120.0
DEV_51118542     (318)    3           7.5556 (   1.049) /_  120.0

ELEMENT = "Line.DEV_51118541_51118543"
DEV_51118541     (211)    1           7.5574 (    1.05) /_   -0.2
DEV_51118541     (212)    2           7.5745 (   1.052) /_ -120.0
DEV_51118541     (213)    3           7.5556 (   1.049) /_  120.0
------------
DEV_51118543     (319)    1           7.5574 (    1.05) /_   -0.2
DEV_51118543     (320)    2           7.5745 (   1.052) /_ -120.0
DEV_51118543     (321)    3           7.5556 (   1.049) /_  120.0

ELEMENT = "Line.DEV_51159905_51159907"
DEV_51159905     (214)    1           7.5546 (   1.049) /_   -0.2
DEV_51159905     (215)    2           7.5721 (   1.052) /_ -120.0
DEV_51159905     (216)    3           7.5532 (   1.049) /_  120.0
------------
DEV_51159907     (322)    1           7.5546 (   1.049) /_   -0.2
DEV_51159907     (323)    2           7.5721 (   1.052) /_ -120.0
DEV_51159907     (324)    3           7.5532 (   1.049) /_  120.0

ELEMENT = "Line.DEV_51159906_51159908"
DEV_51159906     (217)    1           7.5546 (   1.049) /_   -0.2
DEV_51159906     (218)    2           7.5721 (   1.052) /_ -120.0
DEV_51159906     (219)    3           7.5532 (   1.049) /_  120.0
------------
DEV_51159908     (325)    1           7.5546 (   1.049) /_   -0.2
DEV_51159908     (326)    2           7.5721 (   1.052) /_ -120.0
DEV_51159908     (327)    3           7.5532 (   1.049) /_  120.0

ELEMENT = "Line.DEV_51159924_51159926"
DEV_51159924     (220)    1           7.5537 (   1.049) /_   -0.2
DEV_51159924     (221)    2           7.5714 (   1.052) /_ -120.0
DEV_51159924     (222)    3           7.5524 (   1.049) /_  120.0
------------
DEV_51159926     (328)    1           7.5537 (   1.049) /_   -0.2
DEV_51159926     (329)    2           7.5714 (   1.052) /_ -120.0
DEV_51159926     (330)    3           7.5524 (   1.049) /_  120.0

ELEMENT = "Line.DEV_51159925_51159927"
DEV_51159925     (223)    1           7.5537 (   1.049) /_   -0.2
DEV_51159925     (224)    2           7.5714 (   1.052) /_ -120.0
DEV_51159925     (225)    3           7.5524 (   1.049) /_  120.0
------------
DEV_51159927     (331)    1           7.5537 (   1.049) /_   -0.2
DEV_51159927     (332)    2           7.5714 (   1.052) /_ -120.0
DEV_51159927     (333)    3           7.5524 (   1.049) /_  120.0

ELEMENT = "Line.DEV_51187193_628203"
DEV_51187193     (334)    1            7.555 (   1.049) /_   -0.2
DEV_51187193     (335)    2           7.5725 (   1.052) /_ -120.0
DEV_51187193     (336)    3           7.5535 (   1.049) /_  120.0
------------
NODE_628203      (301)    1            7.555 (   1.049) /_   -0.2
NODE_628203      (302)    2           7.5725 (   1.052) /_ -120.0
NODE_628203      (303)    3           7.5535 (   1.049) /_  120.0

ELEMENT = "Line.DEV_51189819_51189821"
DEV_51189819     (226)    1           7.5085 (   1.043) /_   -0.7
DEV_51189819     (227)    2           7.5923 (   1.055) /_ -120.0
DEV_51189819     (228)    3           7.5363 (   1.047) /_  120.2
------------
DEV_51189821     (337)    1           7.5085 (   1.043) /_   -0.7
DEV_51189821     (338)    2           7.5923 (   1.055) /_ -120.0
DEV_51189821     (339)    3           7.5363 (   1.047) /_  120.2

ELEMENT = "Line.DEV_51189820_51189822"
DEV_51189820     (229)    1           7.5085 (   1.043) /_   -0.7
DEV_51189820     (230)    2           7.5923 (   1.055) /_ -120.0
DEV_51189820     (231)    3           7.5363 (   1.047) /_  120.2
------------
DEV_51189822     (340)    1           7.5085 (   1.043) /_   -0.7
DEV_51189822     (341)    2           7.5923 (   1.055) /_ -120.0
DEV_51189822     (342)    3           7.5363 (   1.047) /_  120.2

ELEMENT = "Line.OH_257608"
NODE_559690      (343)    1           7.5284 (   1.046) /_  120.3
------------
DEV_257789       (344)    1           7.5284 (   1.046) /_  120.3

ELEMENT = "Line.OH_257609"
DEV_257789       (344)    1           7.5284 (   1.046) /_  120.3
------------
PRI_257609       (345)    1           7.5284 (   1.046) /_  120.3

ELEMENT = "Line.OH_257610"
NODE_559756      (346)    1           7.5284 (   1.046) /_  120.3
------------
DEV_257509       (347)    1           7.5284 (   1.046) /_  120.3

ELEMENT = "Line.OH_257780"
NODE_559690      (343)    1           7.5284 (   1.046) /_  120.3
------------
NODE_30111897    (348)    1           7.5284 (   1.046) /_  120.3

ELEMENT = "Line.OH_257796"
DEV_257790       (349)    1           7.5284 (   1.046) /_  120.3
------------
NODE_559690      (343)    1           7.5284 (   1.046) /_  120.3

ELEMENT = "Line.OH_257798"
DEV_257799       (350)    1           7.5284 (   1.046) /_  120.3
------------
DEV_257790       (349)    1           7.5284 (   1.046) /_  120.3

ELEMENT = "Line.OH_257804"
NODE_559690      (343)    1           7.5284 (   1.046) /_  120.3
------------
DEV_257791       (351)    1           7.5284 (   1.046) /_  120.3

ELEMENT = "Line.OH_257805"
DEV_257791       (351)    1           7.5284 (   1.046) /_  120.3
------------
PRI_257805       (352)    1           7.5284 (   1.046) /_  120.3

ELEMENT = "Line.OH_257806"
DEV_257565       (353)    1           7.5284 (   1.046) /_  120.3
------------
DEV_257795       (354)    1           7.5284 (   1.046) /_  120.3

ELEMENT = "Line.OH_257807"
DEV_257809       (355)    1           7.5284 (   1.046) /_  120.3
------------
DEV_257565       (353)    1           7.5284 (   1.046) /_  120.3

ELEMENT = "Line.OH_257808"
DEV_257810       (356)    1           7.5284 (   1.046) /_  120.3
------------
DEV_257809       (355)    1           7.5284 (   1.046) /_  120.3

ELEMENT = "Line.OH_257811"
DEV_257812       (357)    1           7.5284 (   1.046) /_  120.3
------------
DEV_257810       (356)    1           7.5284 (   1.046) /_  120.3

ELEMENT = "Line.OH_257813"
DEV_257814       (358)    1           7.5284 (   1.046) /_  120.3
------------
DEV_257812       (357)    1           7.5284 (   1.046) /_  120.3

ELEMENT = "Line.OH_257815"
DEV_257816       (359)    1           7.5284 (   1.046) /_  120.3
------------
DEV_257814       (358)    1           7.5284 (   1.046) /_  120.3

ELEMENT = "Line.OH_257817"
NODE_559756      (346)    1           7.5284 (   1.046) /_  120.3
------------
DEV_257816       (359)    1           7.5284 (   1.046) /_  120.3

ELEMENT = "Line.OH_257818"
DEV_257816       (359)    1           7.5284 (   1.046) /_  120.3
------------
NODE_30111897    (348)    1           7.5284 (   1.046) /_  120.3

ELEMENT = "Line.OH_257819"
DEV_257820       (360)    1           7.5284 (   1.046) /_  120.3
------------
NODE_559756      (346)    1           7.5284 (   1.046) /_  120.3

ELEMENT = "Line.OH_257824"
DEV_257795       (354)    1           7.5284 (   1.046) /_  120.3
------------
PRI_257824       (361)    1           7.5284 (   1.046) /_  120.3

ELEMENT = "Line.OH_258777"
DEV_258994       (362)    1           7.4965 (   1.041) /_   -0.8
DEV_258994       (363)    2           7.5983 (   1.055) /_ -120.0
DEV_258994       (364)    3           7.5319 (   1.046) /_  120.2
------------
NODE_609020      (365)    1           7.4909 (    1.04) /_   -0.9
NODE_609020      (366)    2           7.6012 (   1.056) /_ -120.0
NODE_609020      (367)    3           7.5298 (   1.046) /_  120.2

ELEMENT = "Line.OH_258778"
NODE_609020      (365)    1           7.4909 (    1.04) /_   -0.9
NODE_609020      (366)    2           7.6012 (   1.056) /_ -120.0
NODE_609020      (367)    3           7.5298 (   1.046) /_  120.2
------------
NODE_609022      (368)    1           7.4806 (   1.039) /_   -1.0
NODE_609022      (369)    2            7.605 (   1.056) /_ -120.0
NODE_609022      (370)    3           7.5284 (   1.046) /_  120.2

ELEMENT = "Line.OH_258779"
NODE_609022      (368)    1           7.4806 (   1.039) /_   -1.0
NODE_609022      (369)    2            7.605 (   1.056) /_ -120.0
NODE_609022      (370)    3           7.5284 (   1.046) /_  120.2
------------
NODE_609096      (371)    1           7.4777 (   1.039) /_   -1.0
NODE_609096      (372)    2           7.6061 (   1.056) /_ -120.0
NODE_609096      (373)    3            7.528 (   1.046) /_  120.3

ELEMENT = "Line.OH_258780"
DEV_258913       (374)    1           7.4909 (    1.04) /_   -0.9
DEV_258913       (375)    2           7.6012 (   1.056) /_ -120.0
DEV_258913       (376)    3           7.5298 (   1.046) /_  120.2
------------
NODE_609020      (365)    1           7.4909 (    1.04) /_   -0.9
NODE_609020      (366)    2           7.6012 (   1.056) /_ -120.0
NODE_609020      (367)    3           7.5298 (   1.046) /_  120.2

ELEMENT = "Line.OH_258781"
NODE_609020      (365)    1           7.4909 (    1.04) /_   -0.9
NODE_609020      (366)    2           7.6012 (   1.056) /_ -120.0
NODE_609020      (367)    3           7.5298 (   1.046) /_  120.2
------------
DEV_258789       (377)    1           7.4909 (    1.04) /_   -0.9
DEV_258789       (378)    2           7.6012 (   1.056) /_ -120.0
DEV_258789       (379)    3           7.5298 (   1.046) /_  120.2

ELEMENT = "Line.OH_258783"
NODE_609096      (371)    1           7.4777 (   1.039) /_   -1.0
NODE_609096      (372)    2           7.6061 (   1.056) /_ -120.0
NODE_609096      (373)    3            7.528 (   1.046) /_  120.3
------------
DEV_258893       (380)    1           7.4777 (   1.039) /_   -1.0
DEV_258893       (381)    2           7.6061 (   1.056) /_ -120.0
DEV_258893       (382)    3            7.528 (   1.046) /_  120.3

ELEMENT = "Line.OH_258787"
DEV_258994       (362)    1           7.4965 (   1.041) /_   -0.8
DEV_258994       (363)    2           7.5983 (   1.055) /_ -120.0
DEV_258994       (364)    3           7.5319 (   1.046) /_  120.2
------------
NODE_11021908    (383)    1            7.498 (   1.041) /_   -0.8
NODE_11021908    (384)    2           7.5976 (   1.055) /_ -120.0
NODE_11021908    (385)    3           7.5324 (   1.046) /_  120.2

ELEMENT = "Line.OH_258795"
NODE_609096      (371)    1           7.4777 (   1.039) /_   -1.0
------------
DEV_258796       (386)    1           7.4777 (   1.039) /_   -1.0

ELEMENT = "Line.OH_259262"
NODE_613383      (387)    1           7.5291 (   1.046) /_   -0.5
NODE_613383      (388)    2           7.5822 (   1.053) /_ -120.0
NODE_613383      (389)    3           7.5436 (   1.048) /_  120.1
------------
NODE_11021869    (390)    1           7.5352 (   1.047) /_   -0.4
NODE_11021869    (391)    2           7.5791 (   1.053) /_ -120.0
NODE_11021869    (392)    3           7.5458 (   1.048) /_  120.1

ELEMENT = "Line.OH_259263"
NODE_613383      (387)    1           7.5291 (   1.046) /_   -0.5
NODE_613383      (388)    2           7.5822 (   1.053) /_ -120.0
NODE_613383      (389)    3           7.5436 (   1.048) /_  120.1
------------
DEV_259251       (393)    1           7.5291 (   1.046) /_   -0.5
DEV_259251       (394)    2           7.5822 (   1.053) /_ -120.0
DEV_259251       (395)    3           7.5436 (   1.048) /_  120.1

ELEMENT = "Line.OH_259264"
NODE_613383      (387)    1           7.5291 (   1.046) /_   -0.5
NODE_613383      (388)    2           7.5822 (   1.053) /_ -120.0
NODE_613383      (389)    3           7.5436 (   1.048) /_  120.1
------------
NODE_613393      (396)    1            7.528 (   1.046) /_   -0.5
NODE_613393      (397)    2           7.5828 (   1.053) /_ -120.0
NODE_613393      (398)    3           7.5432 (   1.048) /_  120.1

ELEMENT = "Line.OH_259265"
NODE_613393      (396)    1            7.528 (   1.046) /_   -0.5
NODE_613393      (397)    2           7.5828 (   1.053) /_ -120.0
NODE_613393      (398)    3           7.5432 (   1.048) /_  120.1
------------
NODE_613395      (399)    1           7.5248 (   1.045) /_   -0.5
NODE_613395      (400)    2           7.5844 (   1.053) /_ -120.0
NODE_613395      (401)    3            7.542 (   1.048) /_  120.1

ELEMENT = "Line.OH_259266"
NODE_613395      (399)    1           7.5248 (   1.045) /_   -0.5
NODE_613395      (400)    2           7.5844 (   1.053) /_ -120.0
NODE_613395      (401)    3            7.542 (   1.048) /_  120.1
------------
NODE_613398      (402)    1           7.5233 (   1.045) /_   -0.6
NODE_613398      (403)    2           7.5852 (   1.054) /_ -120.0
NODE_613398      (404)    3           7.5414 (   1.047) /_  120.1

ELEMENT = "Line.OH_259268"
NODE_613398      (402)    1           7.5233 (   1.045) /_   -0.6
NODE_613398      (403)    2           7.5852 (   1.054) /_ -120.0
NODE_613398      (404)    3           7.5414 (   1.047) /_  120.1
------------
NODE_613405      (405)    1           7.5209 (   1.045) /_   -0.6
NODE_613405      (406)    2           7.5861 (   1.054) /_ -120.0
NODE_613405      (407)    3           7.5408 (   1.047) /_  120.1

ELEMENT = "Line.OH_259269"
NODE_613405      (405)    1           7.5209 (   1.045) /_   -0.6
NODE_613405      (406)    2           7.5861 (   1.054) /_ -120.0
NODE_613405      (407)    3           7.5408 (   1.047) /_  120.1
------------
NODE_613407      (408)    1           7.5201 (   1.045) /_   -0.6
NODE_613407      (409)    2           7.5864 (   1.054) /_ -120.0
NODE_613407      (410)    3           7.5406 (   1.047) /_  120.1

ELEMENT = "Line.OH_259270"
NODE_613407      (408)    1           7.5201 (   1.045) /_   -0.6
NODE_613407      (409)    2           7.5864 (   1.054) /_ -120.0
NODE_613407      (410)    3           7.5406 (   1.047) /_  120.1
------------
NODE_11021868    (411)    1            7.519 (   1.044) /_   -0.6
NODE_11021868    (412)    2            7.587 (   1.054) /_ -120.0
NODE_11021868    (413)    3           7.5401 (   1.047) /_  120.1

ELEMENT = "Line.OH_259522"
NODE_11021869    (390)    1           7.5352 (   1.047) /_   -0.4
NODE_11021869    (391)    2           7.5791 (   1.053) /_ -120.0
NODE_11021869    (392)    3           7.5458 (   1.048) /_  120.1
------------
NODE_11021870    (414)    1           7.5359 (   1.047) /_   -0.4
NODE_11021870    (415)    2           7.5788 (   1.053) /_ -120.0
NODE_11021870    (416)    3           7.5461 (   1.048) /_  120.1

ELEMENT = "Line.OH_260847"
DEV_51077536     (417)    1           7.5085 (   1.043) /_   -0.7
DEV_51077536     (418)    2           7.5923 (   1.055) /_ -120.0
DEV_51077536     (419)    3           7.5364 (   1.047) /_  120.2
------------
DEV_260853       (420)    1           7.5085 (   1.043) /_   -0.7
DEV_260853       (421)    2           7.5923 (   1.055) /_ -120.0
DEV_260853       (422)    3           7.5364 (   1.047) /_  120.2

ELEMENT = "Line.OH_260848"
DEV_260853       (420)    1           7.5085 (   1.043) /_   -0.7
DEV_260853       (421)    2           7.5923 (   1.055) /_ -120.0
DEV_260853       (422)    3           7.5364 (   1.047) /_  120.2
------------
NODE_632693      (423)    1           7.5085 (   1.043) /_   -0.7
NODE_632693      (424)    2           7.5923 (   1.055) /_ -120.0
NODE_632693      (425)    3           7.5364 (   1.047) /_  120.2

ELEMENT = "Line.OH_260849"
NODE_632693      (423)    1           7.5085 (   1.043) /_   -0.7
NODE_632693      (424)    2           7.5923 (   1.055) /_ -120.0
NODE_632693      (425)    3           7.5364 (   1.047) /_  120.2
------------
DEV_260852       (426)    1           7.5085 (   1.043) /_   -0.7
DEV_260852       (427)    2           7.5923 (   1.055) /_ -120.0
DEV_260852       (428)    3           7.5364 (   1.047) /_  120.2

ELEMENT = "Line.OH_260850"
DEV_260852       (426)    1           7.5085 (   1.043) /_   -0.7
DEV_260852       (427)    2           7.5923 (   1.055) /_ -120.0
DEV_260852       (428)    3           7.5364 (   1.047) /_  120.2
------------
DEV_260851       (429)    1           7.5085 (   1.043) /_   -0.7
DEV_260851       (430)    2           7.5923 (   1.055) /_ -120.0
DEV_260851       (431)    3           7.5364 (   1.047) /_  120.2

ELEMENT = "Line.OH_260929"
NODE_630664      (432)    1           7.5085 (   1.043) /_   -0.7
NODE_630664      (433)    2           7.5923 (   1.055) /_ -120.0
NODE_630664      (434)    3           7.5364 (   1.047) /_  120.2
------------
NODE_11021960    (435)    1           7.5085 (   1.043) /_   -0.7
NODE_11021960    (436)    2           7.5923 (   1.055) /_ -120.0
NODE_11021960    (437)    3           7.5364 (   1.047) /_  120.2

ELEMENT = "Line.OH_260930"
DEV_260934       (438)    1           7.5085 (   1.043) /_   -0.7
DEV_260934       (439)    2           7.5364 (   1.047) /_  120.2
------------
DEV_51187136     (440)    1           7.5085 (   1.043) /_   -0.7
DEV_51187136     (441)    2           7.5364 (   1.047) /_  120.2

ELEMENT = "Line.OH_260931"
NODE_11021962    (442)    1           7.5085 (   1.043) /_   -0.7
NODE_11021962    (443)    2           7.5364 (   1.047) /_  120.2
------------
DEV_260934       (438)    1           7.5085 (   1.043) /_   -0.7
DEV_260934       (439)    2           7.5364 (   1.047) /_  120.2

ELEMENT = "Line.OH_260932"
NODE_11021963    (444)    1           7.5085 (   1.043) /_   -0.7
NODE_11021963    (445)    2           7.5364 (   1.047) /_  120.2
------------
DEV_260933       (446)    1           7.5085 (   1.043) /_   -0.7
DEV_260933       (447)    2           7.5364 (   1.047) /_  120.2

ELEMENT = "Line.OH_260935"
DEV_260951       (448)    1           7.5085 (   1.043) /_   -0.7
DEV_260951       (449)    2           7.5923 (   1.055) /_ -120.0
DEV_260951       (450)    3           7.5364 (   1.047) /_  120.2
------------
NODE_630664      (432)    1           7.5085 (   1.043) /_   -0.7
NODE_630664      (433)    2           7.5923 (   1.055) /_ -120.0
NODE_630664      (434)    3           7.5364 (   1.047) /_  120.2

ELEMENT = "Line.OH_260936"
NODE_630695      (451)    1           7.5085 (   1.043) /_   -0.7
NODE_630695      (452)    2           7.5923 (   1.055) /_ -120.0
NODE_630695      (453)    3           7.5364 (   1.047) /_  120.2
------------
DEV_50012016     (454)    1           7.5085 (   1.043) /_   -0.7
DEV_50012016     (455)    2           7.5923 (   1.055) /_ -120.0
DEV_50012016     (456)    3           7.5364 (   1.047) /_  120.2

ELEMENT = "Line.OH_260937"
DEV_260944       (457)    1           7.5085 (   1.043) /_   -0.7
DEV_260944       (458)    2           7.5923 (   1.055) /_ -120.0
DEV_260944       (459)    3           7.5364 (   1.047) /_  120.2
------------
NODE_630695      (451)    1           7.5085 (   1.043) /_   -0.7
NODE_630695      (452)    2           7.5923 (   1.055) /_ -120.0
NODE_630695      (453)    3           7.5364 (   1.047) /_  120.2

ELEMENT = "Line.OH_260938"
NODE_630679      (460)    1           7.5085 (   1.043) /_   -0.7
NODE_630679      (461)    2           7.5923 (   1.055) /_ -120.0
NODE_630679      (462)    3           7.5364 (   1.047) /_  120.2
------------
DEV_260944       (457)    1           7.5085 (   1.043) /_   -0.7
DEV_260944       (458)    2           7.5923 (   1.055) /_ -120.0
DEV_260944       (459)    3           7.5364 (   1.047) /_  120.2

ELEMENT = "Line.OH_260939"
NODE_630677      (463)    1           7.5085 (   1.043) /_   -0.7
NODE_630677      (464)    2           7.5923 (   1.055) /_ -120.0
NODE_630677      (465)    3           7.5364 (   1.047) /_  120.2
------------
NODE_630679      (460)    1           7.5085 (   1.043) /_   -0.7
NODE_630679      (461)    2           7.5923 (   1.055) /_ -120.0
NODE_630679      (462)    3           7.5364 (   1.047) /_  120.2

ELEMENT = "Line.OH_260940"
DEV_260942       (466)    1           7.5085 (   1.043) /_   -0.7
DEV_260942       (467)    2           7.5923 (   1.055) /_ -120.0
DEV_260942       (468)    3           7.5364 (   1.047) /_  120.2
------------
NODE_630677      (463)    1           7.5085 (   1.043) /_   -0.7
NODE_630677      (464)    2           7.5923 (   1.055) /_ -120.0
NODE_630677      (465)    3           7.5364 (   1.047) /_  120.2

ELEMENT = "Line.OH_260941"
DEV_51077536     (417)    1           7.5085 (   1.043) /_   -0.7
DEV_51077536     (418)    2           7.5923 (   1.055) /_ -120.0
DEV_51077536     (419)    3           7.5364 (   1.047) /_  120.2
------------
DEV_260942       (466)    1           7.5085 (   1.043) /_   -0.7
DEV_260942       (467)    2           7.5923 (   1.055) /_ -120.0
DEV_260942       (468)    3           7.5364 (   1.047) /_  120.2

ELEMENT = "Line.OH_260945"
DEV_260949       (469)    1           7.5085 (   1.043) /_   -0.7
DEV_260949       (470)    2           7.5923 (   1.055) /_ -120.0
DEV_260949       (471)    3           7.5364 (   1.047) /_  120.2
------------
NODE_630695      (451)    1           7.5085 (   1.043) /_   -0.7
NODE_630695      (452)    2           7.5923 (   1.055) /_ -120.0
NODE_630695      (453)    3           7.5364 (   1.047) /_  120.2

ELEMENT = "Line.OH_260946"
DEV_260948       (472)    1           7.5085 (   1.043) /_   -0.7
DEV_260948       (473)    2           7.5923 (   1.055) /_ -120.0
DEV_260948       (474)    3           7.5364 (   1.047) /_  120.2
------------
DEV_260949       (469)    1           7.5085 (   1.043) /_   -0.7
DEV_260949       (470)    2           7.5923 (   1.055) /_ -120.0
DEV_260949       (471)    3           7.5364 (   1.047) /_  120.2

ELEMENT = "Line.OH_260947"
NODE_11021965    (475)    1           7.5085 (   1.043) /_   -0.7
NODE_11021965    (476)    2           7.5923 (   1.055) /_ -120.0
NODE_11021965    (477)    3           7.5364 (   1.047) /_  120.2
------------
DEV_260948       (472)    1           7.5085 (   1.043) /_   -0.7
DEV_260948       (473)    2           7.5923 (   1.055) /_ -120.0
DEV_260948       (474)    3           7.5364 (   1.047) /_  120.2

ELEMENT = "Line.OH_260950"
NODE_630695      (451)    1           7.5085 (   1.043) /_   -0.7
NODE_630695      (452)    2           7.5923 (   1.055) /_ -120.0
NODE_630695      (453)    3           7.5364 (   1.047) /_  120.2
------------
DEV_260953       (478)    1           7.5085 (   1.043) /_   -0.7
DEV_260953       (479)    2           7.5923 (   1.055) /_ -120.0
DEV_260953       (480)    3           7.5364 (   1.047) /_  120.2

ELEMENT = "Line.OH_260952"
NODE_630664      (432)    1           7.5085 (   1.043) /_   -0.7
NODE_630664      (434)    2           7.5364 (   1.047) /_  120.2
------------
NODE_11021961    (481)    1           7.5085 (   1.043) /_   -0.7
NODE_11021961    (482)    2           7.5364 (   1.047) /_  120.2

ELEMENT = "Line.OH_260955"
DEV_50012016     (454)    1           7.5085 (   1.043) /_   -0.7
DEV_50012016     (455)    2           7.5923 (   1.055) /_ -120.0
DEV_50012016     (456)    3           7.5364 (   1.047) /_  120.2
------------
DEV_260951       (448)    1           7.5085 (   1.043) /_   -0.7
DEV_260951       (449)    2           7.5923 (   1.055) /_ -120.0
DEV_260951       (450)    3           7.5364 (   1.047) /_  120.2

ELEMENT = "Line.OH_261168"
NODE_630598      (483)    1           7.5085 (   1.043) /_   -0.7
NODE_630598      (484)    2           7.5364 (   1.047) /_  120.2
------------
NODE_11021962    (442)    1           7.5085 (   1.043) /_   -0.7
NODE_11021962    (443)    2           7.5364 (   1.047) /_  120.2

ELEMENT = "Line.OH_261169"
NODE_630598      (483)    1           7.5085 (   1.043) /_   -0.7
NODE_630598      (484)    2           7.5364 (   1.047) /_  120.2
------------
NODE_11021963    (444)    1           7.5085 (   1.043) /_   -0.7
NODE_11021963    (445)    2           7.5364 (   1.047) /_  120.2

ELEMENT = "Line.OH_261170"
NODE_630598      (483)    1           7.5085 (   1.043) /_   -0.7
NODE_630598      (484)    2           7.5364 (   1.047) /_  120.2
------------
DEV_261171       (485)    1           7.5085 (   1.043) /_   -0.7
DEV_261171       (486)    2           7.5364 (   1.047) /_  120.2

ELEMENT = "Line.OH_261399"
PRI_261399       (487)    1           7.5085 (   1.043) /_   -0.7
PRI_261399       (488)    2           7.5363 (   1.047) /_  120.2
------------
NODE_11021973    (489)    1           7.5085 (   1.043) /_   -0.7
NODE_11021973    (490)    2           7.5363 (   1.047) /_  120.2

ELEMENT = "Line.OH_261400"
DEV_261404       (491)    1           7.5085 (   1.043) /_   -0.7
DEV_261404       (492)    2           7.5923 (   1.055) /_ -120.0
DEV_261404       (493)    3           7.5363 (   1.047) /_  120.2
------------
NODE_11021972    (494)    1           7.5085 (   1.043) /_   -0.7
NODE_11021972    (495)    2           7.5923 (   1.055) /_ -120.0
NODE_11021972    (496)    3           7.5363 (   1.047) /_  120.2

ELEMENT = "Line.OH_261401"
NODE_618744      (497)    1           7.5085 (   1.043) /_   -0.7
NODE_618744      (498)    2           7.5923 (   1.055) /_ -120.0
NODE_618744      (499)    3           7.5363 (   1.047) /_  120.2
------------
NODE_618756      (500)    1           7.5085 (   1.043) /_   -0.7
NODE_618756      (501)    2           7.5923 (   1.055) /_ -120.0
NODE_618756      (502)    3           7.5363 (   1.047) /_  120.2

ELEMENT = "Line.OH_261402"
NODE_618756      (500)    1           7.5085 (   1.043) /_   -0.7
NODE_618756      (501)    2           7.5923 (   1.055) /_ -120.0
------------
NODE_11021974    (503)    1           7.5085 (   1.043) /_   -0.7
NODE_11021974    (504)    2           7.5923 (   1.055) /_ -120.0

ELEMENT = "Line.OH_261403"
NODE_618756      (500)    1           7.5085 (   1.043) /_   -0.7
NODE_618756      (501)    2           7.5923 (   1.055) /_ -120.0
NODE_618756      (502)    3           7.5363 (   1.047) /_  120.2
------------
NODE_11021975    (505)    1           7.5085 (   1.043) /_   -0.7
NODE_11021975    (506)    2           7.5923 (   1.055) /_ -120.0
NODE_11021975    (507)    3           7.5363 (   1.047) /_  120.2

ELEMENT = "Line.OH_261429"
NODE_618744      (497)    1           7.5085 (   1.043) /_   -0.7
NODE_618744      (499)    2           7.5363 (   1.047) /_  120.2
------------
DEV_261428       (508)    1           7.5085 (   1.043) /_   -0.7
DEV_261428       (509)    2           7.5363 (   1.047) /_  120.2

ELEMENT = "Line.OH_261430"
NODE_618744      (497)    1           7.5085 (   1.043) /_   -0.7
NODE_618744      (498)    2           7.5923 (   1.055) /_ -120.0
NODE_618744      (499)    3           7.5363 (   1.047) /_  120.2
------------
DEV_261404       (491)    1           7.5085 (   1.043) /_   -0.7
DEV_261404       (492)    2           7.5923 (   1.055) /_ -120.0
DEV_261404       (493)    3           7.5363 (   1.047) /_  120.2

ELEMENT = "Line.OH_261479"
DEV_261482       (510)    1           7.5085 (   1.043) /_   -0.7
DEV_261482       (511)    2           7.5363 (   1.047) /_  120.2
------------
DEV_261481       (512)    1           7.5085 (   1.043) /_   -0.7
DEV_261481       (513)    2           7.5363 (   1.047) /_  120.2

ELEMENT = "Line.OH_261480"
DEV_261481       (512)    1           7.5085 (   1.043) /_   -0.7
DEV_261481       (513)    2           7.5363 (   1.047) /_  120.2
------------
PRI_261480       (514)    1           7.5085 (   1.043) /_   -0.7
PRI_261480       (515)    2           7.5363 (   1.047) /_  120.2

ELEMENT = "Line.OH_261483"
NODE_11021974    (503)    1           7.5085 (   1.043) /_   -0.7
NODE_11021974    (504)    2           7.5923 (   1.055) /_ -120.0
------------
DEV_261484       (516)    1           7.5085 (   1.043) /_   -0.7
DEV_261484       (517)    2           7.5923 (   1.055) /_ -120.0

ELEMENT = "Line.OH_261485"
DEV_261484       (516)    1           7.5085 (   1.043) /_   -0.7
DEV_261484       (517)    2           7.5923 (   1.055) /_ -120.0
------------
PRI_261485       (518)    1           7.5085 (   1.043) /_   -0.7
PRI_261485       (519)    2           7.5923 (   1.055) /_ -120.0

ELEMENT = "Line.OH_261486"
NODE_11021975    (505)    1           7.5085 (   1.043) /_   -0.7
NODE_11021975    (506)    2           7.5923 (   1.055) /_ -120.0
NODE_11021975    (507)    3           7.5363 (   1.047) /_  120.2
------------
DEV_261487       (520)    1           7.5085 (   1.043) /_   -0.7
DEV_261487       (521)    2           7.5923 (   1.055) /_ -120.0
DEV_261487       (522)    3           7.5363 (   1.047) /_  120.2

ELEMENT = "Line.OH_261488"
DEV_261487       (520)    1           7.5085 (   1.043) /_   -0.7
DEV_261487       (521)    2           7.5923 (   1.055) /_ -120.0
DEV_261487       (522)    3           7.5363 (   1.047) /_  120.2
------------
DEV_261490       (523)    1           7.5085 (   1.043) /_   -0.7
DEV_261490       (524)    2           7.5923 (   1.055) /_ -120.0
DEV_261490       (525)    3           7.5363 (   1.047) /_  120.2

ELEMENT = "Line.OH_261489"
DEV_261490       (523)    1           7.5085 (   1.043) /_   -0.7
...